Circuit: * D:\Educational\Electricite\7\Sensing and Measurment\Project\Simulations\Amayesh_output\Transient\Transient.asc

Early termination of direct N-R iteration.
Direct Newton iteration failed to find .op point.  (Use ".option noopiter" to skip.)
Starting Gmin stepping
Gmin = 10
Gmin = 1.07374
Gmin = 0.115292
Gmin = 0.0123794
Gmin = 0.00132923
Gmin = 0.000142725
Gmin = 1.5325e-005
Gmin = 1.6455e-006
Gmin = 1.76685e-007
Gmin = 1.89714e-008
Gmin = 2.03704e-009
Gmin = 2.18725e-010
Gmin = 2.34854e-011
Gmin = 2.52173e-012
Gmin = 2.70769e-013
Gmin = 0
Gmin stepping succeeded in finding the operating point.

Heightened Def Con from 0.00542998 to 0.00542998

Date: Fri Feb 20 13:47:58 2026
Total elapsed time: 8.401 seconds.

tnom = 27
temp = 27
method = modified trap
totiter = 416042
traniter = 415601
tranpoints = 207808
accept = 129026
rejected = 78783
matrix size = 82
fillins = 232
solver = Normal
Thread vector: 13.4/11.4[3] 4.9/4.8[1] 2.6/3.8[1] 0.2/3.0[1]  2592/500
Matrix Compiler1: 16.04 KB object code size  8.8/0.9/[0.5]
Matrix Compiler2: 13.14 KB object code size  0.9/1.2/[0.4]

